<?xml version="1.0" encoding="UTF-8"?>

<!-- generated on 2023-08-30 17:56:59 by Eclipse SUMO netedit Version 1.18.0
<configuration xmlns:xsi="http://www.w3.org/2001/XMLSchema-instance" xsi:noNamespaceSchemaLocation="http://sumo.dlr.de/xsd/neteditConfiguration.xsd">

    <input>
        <sumocfg-file value="/Users/oachuang/Documents/Programming/GitHub/SimCycle/Sumo/Saves/uoa/uoa.sumocfg"/>
        <route-files value="/Users/oachuang/Documents/Programming/GitHub/SimCycle/Sumo/Saves/uoa/uoa.rou.xml"/>
        <sumo-net-file value="/Users/oachuang/Documents/Programming/GitHub/SimCycle/Sumo/Saves/uoa/uoa.net.xml"/>
    </input>

    <output>
        <output-file value="/Users/oachuang/Documents/Programming/GitHub/SimCycle/Sumo/Saves/uoa/uoa.net.xml"/>
    </output>

    <processing>
        <geometry.min-radius.fix.railways value="false"/>
        <geometry.max-grade.fix value="false"/>
        <offset.disable-normalization value="true"/>
        <lefthand value="0"/>
    </processing>

    <junctions>
        <no-turnarounds value="true"/>
        <junctions.corner-detail value="5"/>
        <junctions.limit-turn-speed value="5.50"/>
        <rectangular-lane-cut value="0"/>
    </junctions>

    <pedestrian>
        <walkingareas value="0"/>
    </pedestrian>

</configuration>
-->

<net version="1.16" junctionCornerDetail="5" limitTurnSpeed="5.50" xmlns:xsi="http://www.w3.org/2001/XMLSchema-instance" xsi:noNamespaceSchemaLocation="http://sumo.dlr.de/xsd/net_file.xsd">

    <location netOffset="-300742.72,4081158.48" convBoundary="0.00,0.00,595.45,624.98" origBoundary="174.764992,-36.855935,174.771755,-36.849807" projParameter="+proj=utm +zone=60 +ellps=WGS84 +datum=WGS84 +units=m +no_defs"/>

    <type id="highway.cycleway" priority="1" numLanes="1" speed="5.56" allow="bicycle" oneway="0" width="2.00"/>
    <type id="highway.footway" priority="1" numLanes="1" speed="2.78" allow="pedestrian" oneway="1" width="2.00"/>
    <type id="highway.living_street" priority="2" numLanes="1" speed="2.78" disallow="tram rail_urban rail rail_electric rail_fast ship" oneway="0"/>
    <type id="highway.motorway_link" priority="9" numLanes="1" speed="16.67" allow="private emergency authority army vip passenger hov taxi bus coach delivery truck trailer motorcycle evehicle custom1 custom2" oneway="1"/>
    <type id="highway.pedestrian" priority="1" numLanes="1" speed="2.78" allow="pedestrian" oneway="1" width="2.00"/>
    <type id="highway.residential" priority="3" numLanes="1" speed="13.89" disallow="tram rail_urban rail rail_electric rail_fast ship" oneway="0"/>
    <type id="highway.secondary" priority="11" numLanes="1" speed="13.89" disallow="tram rail_urban rail rail_electric rail_fast ship" oneway="0"/>
    <type id="highway.secondary_link" priority="6" numLanes="1" speed="13.89" disallow="tram rail_urban rail rail_electric rail_fast ship" oneway="0"/>
    <type id="highway.service" priority="1" numLanes="1" speed="5.56" allow="pedestrian delivery bicycle" oneway="0"/>
    <type id="highway.steps" priority="1" numLanes="1" speed="1.39" allow="pedestrian" oneway="1" width="2.00"/>
    <type id="highway.track" priority="1" numLanes="1" speed="5.56" allow="pedestrian motorcycle moped bicycle" oneway="0"/>
    <type id="highway.unclassified" priority="4" numLanes="1" speed="13.89" disallow="tram rail_urban rail rail_electric rail_fast ship" oneway="0"/>

    <edge id=":11045833790_0" function="internal">
        <lane id=":11045833790_0_0" index="0" disallow="tram rail_urban rail rail_electric rail_fast ship" speed="8.33" length="5.12" shape="155.23,165.21 160.31,164.59"/>
    </edge>
    <edge id=":1235419281_0" function="internal">
        <lane id=":1235419281_0_0" index="0" allow="pedestrian delivery bicycle" speed="3.65" length="4.67" shape="407.93,155.75 407.97,154.31 408.44,153.54 409.33,153.46 410.65,154.06"/>
    </edge>
    <edge id=":1235419284_0" function="internal">
        <lane id=":1235419284_0_0" index="0" allow="pedestrian delivery bicycle" speed="5.56" length="18.36" shape="445.85,211.15 434.01,197.11"/>
    </edge>
    <edge id=":1235419284_1" function="internal">
        <lane id=":1235419284_1_0" index="0" allow="pedestrian delivery bicycle" speed="5.56" length="18.74" shape="445.85,211.15 443.90,207.37 442.47,202.52 441.16,197.60 439.58,193.56"/>
    </edge>
    <edge id=":1235419284_2" function="internal">
        <lane id=":1235419284_2_0" index="0" allow="pedestrian delivery bicycle" speed="3.65" length="4.67" shape="445.85,211.15 445.73,209.71 446.10,208.90 446.98,208.71 448.35,209.15"/>
    </edge>
    <edge id=":1235419284_3" function="internal">
        <lane id=":1235419284_3_0" index="0" allow="pedestrian delivery bicycle" speed="5.56" length="17.11" shape="442.94,193.00 444.39,196.81 445.40,201.24 446.53,205.59 448.35,209.15"/>
    </edge>
    <edge id=":1235419284_4" function="internal">
        <lane id=":1235419284_4_0" index="0" allow="pedestrian delivery bicycle" speed="5.56" length="13.74" shape="442.94,193.00 443.18,196.23 440.81,198.40 437.28,198.89 434.01,197.11"/>
    </edge>
    <edge id=":1235419284_5" function="internal">
        <lane id=":1235419284_5_0" index="0" allow="pedestrian delivery bicycle" speed="3.73" length="4.98" shape="442.94,193.00 442.31,194.40 441.54,194.96 440.63,194.68 439.58,193.56"/>
    </edge>
    <edge id=":1235419284_6" function="internal">
        <lane id=":1235419284_6_0" index="0" allow="pedestrian delivery bicycle" speed="5.56" length="18.43" shape="436.45,195.04 441.11,200.20 443.19,201.67 442.68,199.46 439.58,193.56"/>
    </edge>
    <edge id=":1235419284_7" function="internal">
        <lane id=":1235419284_7_0" index="0" allow="pedestrian delivery bicycle" speed="5.56" length="18.46" shape="436.45,195.04 448.35,209.15"/>
    </edge>
    <edge id=":1235419284_8" function="internal">
        <lane id=":1235419284_8_0" index="0" allow="pedestrian delivery bicycle" speed="3.65" length="4.67" shape="436.45,195.04 436.62,196.47 436.27,197.30 435.40,197.51 434.01,197.11"/>
    </edge>
    <edge id=":1235419285_0" function="internal">
        <lane id=":1235419285_0_0" index="0" allow="pedestrian delivery bicycle" speed="5.56" length="5.54" shape="432.10,194.87 431.04,193.61 430.35,192.73 429.69,191.81 428.77,190.45"/>
    </edge>
    <edge id=":1235419285_1" function="internal">
        <lane id=":1235419285_1_0" index="0" allow="pedestrian delivery bicycle" speed="3.65" length="4.67" shape="432.10,194.87 431.94,193.44 432.29,192.61 433.15,192.40 434.54,192.79"/>
    </edge>
    <edge id=":1235419285_2" function="internal">
        <lane id=":1235419285_2_0" index="0" allow="pedestrian delivery bicycle" speed="5.56" length="5.18" shape="431.43,188.66 432.29,189.94 432.90,190.79 433.55,191.62 434.54,192.79"/>
    </edge>
    <edge id=":1235419285_3" function="internal">
        <lane id=":1235419285_3_0" index="0" allow="pedestrian delivery bicycle" speed="3.65" length="4.67" shape="431.43,188.66 431.43,190.10 430.99,190.88 430.11,191.00 428.77,190.45"/>
    </edge>
    <edge id=":1335166344_0" function="internal">
        <lane id=":1335166344_0_0" index="0" disallow="pedestrian tram rail_urban rail rail_electric rail_fast ship" speed="8.33" length="8.24" shape="243.85,338.60 242.55,336.57 242.01,334.97 241.52,333.33 240.35,331.20"/>
    </edge>
    <edge id=":1335166344_1" function="internal">
        <lane id=":1335166344_1_0" index="0" disallow="pedestrian tram rail_urban rail rail_electric rail_fast ship" speed="8.33" length="8.20" shape="239.83,331.70 241.69,333.24 243.20,334.04 244.65,334.90 246.34,336.59"/>
    </edge>
    <edge id=":1335166347_0" function="internal">
        <lane id=":1335166347_0_0" index="0" disallow="pedestrian tram rail_urban rail rail_electric rail_fast ship" speed="8.33" length="8.92" shape="278.77,141.15 279.91,143.10 280.55,144.59 281.39,145.85 283.12,147.14"/>
        <lane id=":1335166347_0_1" index="1" disallow="pedestrian tram rail_urban rail rail_electric rail_fast ship" speed="8.33" length="8.92" shape="276.16,143.00 277.54,145.28 278.37,146.98 279.45,148.42 281.53,149.92"/>
        <lane id=":1335166347_0_2" index="2" disallow="pedestrian tram rail_urban rail rail_electric rail_fast ship" speed="8.33" length="8.92" shape="273.55,144.85 275.17,147.46 276.20,149.38 277.50,150.99 279.94,152.69"/>
    </edge>
    <edge id=":1335166347_3" function="internal">
        <lane id=":1335166347_3_0" index="0" disallow="pedestrian tram rail_urban rail rail_electric rail_fast ship" speed="8.33" length="9.26" shape="271.96,151.18 274.87,150.25 276.95,149.30 278.94,148.97 281.53,149.92"/>
        <lane id=":1335166347_3_1" index="1" disallow="pedestrian tram rail_urban rail rail_electric rail_fast ship" speed="8.33" length="9.26" shape="271.96,151.18 274.39,150.80 276.12,150.89 277.77,151.49 279.94,152.69"/>
    </edge>
    <edge id=":1335168365_0" function="internal">
        <lane id=":1335168365_0_0" index="0" allow="pedestrian delivery bicycle" speed="3.74" length="5.01" shape="196.63,258.14 196.36,256.62 196.69,255.71 197.60,255.43 199.11,255.77"/>
    </edge>
    <edge id=":1335172523_0" function="internal">
        <lane id=":1335172523_0_0" index="0" disallow="pedestrian tram rail_urban rail rail_electric rail_fast ship" speed="11.11" length="0.29" shape="309.76,151.86 309.94,151.62"/>
    </edge>
    <edge id=":1335172539_0" function="internal">
        <lane id=":1335172539_0_0" index="0" disallow="pedestrian tram rail_urban rail rail_electric rail_fast ship" speed="8.33" length="8.65" shape="210.50,281.85 208.91,283.88 207.86,285.36 207.22,286.99 206.87,289.48"/>
    </edge>
    <edge id=":1335172539_1" function="internal">
        <lane id=":1335172539_1_0" index="0" disallow="pedestrian tram rail_urban rail rail_electric rail_fast ship" speed="8.33" length="9.71" shape="207.94,279.94 206.42,282.37 205.69,284.22 204.96,286.08 203.43,288.50"/>
    </edge>
    <edge id=":1335172562_0" function="internal">
        <lane id=":1335172562_0_0" index="0" disallow="pedestrian tram rail_urban rail rail_electric rail_fast ship" speed="11.11" length="0.27" shape="305.40,148.68 305.29,148.84"/>
        <lane id=":1335172562_0_1" index="1" disallow="pedestrian tram rail_urban rail rail_electric rail_fast ship" speed="11.11" length="0.27" shape="302.82,146.78 302.62,147.07"/>
    </edge>
    <edge id=":1417651107_0" function="internal">
        <lane id=":1417651107_0_0" index="0" allow="pedestrian delivery bicycle" speed="3.65" length="4.67" shape="247.17,1.13 246.89,-0.28 247.17,-1.13 248.02,-1.41 249.43,-1.13"/>
    </edge>
    <edge id=":1423563758_0" function="internal">
        <lane id=":1423563758_0_0" index="0" disallow="pedestrian tram rail_urban rail rail_electric rail_fast ship" speed="8.33" length="18.25" shape="281.58,138.52 277.61,135.01 273.71,133.92 269.81,132.83 265.86,129.31"/>
        <lane id=":1423563758_0_1" index="1" disallow="pedestrian tram rail_urban rail rail_electric rail_fast ship" speed="8.33" length="18.25" shape="283.59,135.85 279.79,132.56 276.01,131.65 272.24,130.72 268.45,127.43"/>
    </edge>
    <edge id=":1423563758_2" function="internal">
        <lane id=":1423563758_2_0" index="0" disallow="pedestrian tram rail_urban rail rail_electric rail_fast ship" speed="8.33" length="17.49" shape="273.64,123.69 275.86,128.36 276.07,132.18 276.27,136.01 278.45,140.70"/>
        <lane id=":1423563758_2_1" index="1" disallow="pedestrian tram rail_urban rail rail_electric rail_fast ship" speed="8.33" length="17.49" shape="271.05,125.56 273.05,129.93 273.11,133.54 273.16,137.15 275.13,141.55"/>
        <lane id=":1423563758_2_2" index="2" disallow="pedestrian tram rail_urban rail rail_electric rail_fast ship" speed="8.33" length="17.49" shape="271.05,125.56 272.56,130.11 271.45,133.96 270.33,137.82 271.81,142.39"/>
    </edge>
    <edge id=":1423563758_5" function="internal">
        <lane id=":1423563758_5_0" index="0" disallow="pedestrian tram rail_urban rail rail_electric rail_fast ship" speed="3.65" length="4.67" shape="271.05,125.56 271.10,127.00 270.68,127.79 269.80,127.94 268.45,127.43"/>
    </edge>
    <edge id=":1661804576_0" function="internal">
        <lane id=":1661804576_0_0" index="0" disallow="pedestrian tram rail_urban rail rail_electric rail_fast ship" speed="8.33" length="9.75" shape="260.09,121.32 254.51,113.26"/>
        <lane id=":1661804576_0_1" index="1" disallow="pedestrian tram rail_urban rail rail_electric rail_fast ship" speed="8.33" length="9.75" shape="262.69,119.45 257.17,111.48"/>
    </edge>
    <edge id=":1661804576_2" function="internal">
        <lane id=":1661804576_2_0" index="0" allow="delivery bicycle" speed="6.95" length="2.69" shape="262.69,119.45 261.65,116.96"/>
    </edge>
    <edge id=":1661804576_9" function="internal">
        <lane id=":1661804576_9_0" index="0" allow="delivery bicycle" speed="6.95" length="10.22" shape="261.65,116.96 261.99,114.33 263.71,111.54 266.82,108.59"/>
    </edge>
    <edge id=":1661804576_3" function="internal">
        <lane id=":1661804576_3_0" index="0" allow="delivery bicycle" speed="5.24" length="5.30" shape="268.81,111.10 267.74,112.19 267.23,113.32 267.27,114.49 267.88,115.70"/>
    </edge>
    <edge id=":1661804576_4" function="internal">
        <lane id=":1661804576_4_0" index="0" allow="delivery bicycle" speed="6.95" length="13.40" shape="268.81,111.10 265.17,113.44 262.02,114.28 259.35,113.63 257.17,111.48"/>
    </edge>
    <edge id=":1661804576_5" function="internal">
        <lane id=":1661804576_5_0" index="0" allow="pedestrian delivery bicycle" speed="3.65" length="4.67" shape="268.81,111.10 267.37,111.22 266.56,110.84 266.38,109.96 266.82,108.59"/>
    </edge>
    <edge id=":1661804576_6" function="internal">
        <lane id=":1661804576_6_0" index="0" allow="delivery bicycle" speed="4.96" length="5.10" shape="262.48,107.92 263.43,108.97 264.47,109.43 265.60,109.30 266.82,108.59"/>
    </edge>
    <edge id=":1661804576_7" function="internal">
        <lane id=":1661804576_7_0" index="0" disallow="pedestrian tram rail_urban rail rail_electric rail_fast ship" speed="8.33" length="9.53" shape="262.48,107.92 267.88,115.70"/>
        <lane id=":1661804576_7_1" index="1" disallow="pedestrian tram rail_urban rail rail_electric rail_fast ship" speed="8.33" length="9.53" shape="259.83,109.70 265.28,117.57"/>
    </edge>
    <edge id=":1667024249_0" function="internal">
        <lane id=":1667024249_0_0" index="0" allow="pedestrian delivery bicycle" speed="3.65" length="4.67" shape="127.39,340.43 125.96,340.59 125.14,340.24 124.93,339.37 125.33,337.99"/>
    </edge>
    <edge id=":1667024298_0" function="internal">
        <lane id=":1667024298_0_0" index="0" allow="pedestrian delivery bicycle" speed="5.05" length="4.99" shape="149.32,325.70 148.26,324.84 147.18,324.52 146.07,324.74 144.94,325.51"/>
    </edge>
    <edge id=":1667024298_1" function="internal">
        <lane id=":1667024298_1_0" index="0" allow="pedestrian delivery bicycle" speed="5.56" length="9.79" shape="149.32,325.70 148.06,323.80 147.56,321.64 147.82,319.22 148.84,316.55"/>
    </edge>
    <edge id=":1667024298_2" function="internal">
        <lane id=":1667024298_2_0" index="0" allow="pedestrian delivery bicycle" speed="3.65" length="4.67" shape="149.32,325.70 149.09,324.27 149.41,323.44 150.27,323.19 151.67,323.53"/>
    </edge>
    <edge id=":1667024298_3" function="internal">
        <lane id=":1667024298_3_0" index="0" allow="pedestrian delivery bicycle" speed="5.56" length="5.05" shape="151.29,318.82 150.79,320.16 150.68,321.39 150.98,322.51 151.67,323.53"/>
    </edge>
    <edge id=":1667024298_4" function="internal">
        <lane id=":1667024298_4_0" index="0" allow="pedestrian delivery bicycle" speed="5.56" length="9.33" shape="151.29,318.82 149.90,321.17 148.62,322.55 147.08,323.74 144.94,325.51"/>
    </edge>
    <edge id=":1667024298_5" function="internal">
        <lane id=":1667024298_5_0" index="0" allow="pedestrian delivery bicycle" speed="3.70" length="4.87" shape="151.29,318.82 149.82,319.17 148.93,318.91 148.60,318.04 148.84,316.55"/>
    </edge>
    <edge id=":1667024298_6" function="internal">
        <lane id=":1667024298_6_0" index="0" allow="pedestrian delivery bicycle" speed="5.56" length="9.06" shape="142.79,323.14 144.85,321.41 146.30,320.22 147.51,318.85 148.84,316.55"/>
    </edge>
    <edge id=":1667024298_7" function="internal">
        <lane id=":1667024298_7_0" index="0" allow="pedestrian delivery bicycle" speed="5.56" length="10.12" shape="142.79,323.14 145.08,321.59 147.32,321.13 149.52,321.78 151.67,323.53"/>
    </edge>
    <edge id=":1667024298_8" function="internal">
        <lane id=":1667024298_8_0" index="0" allow="pedestrian delivery bicycle" speed="3.65" length="4.67" shape="142.79,323.14 144.21,322.93 145.05,323.25 145.29,324.11 144.94,325.51"/>
    </edge>
    <edge id=":1667024372_0" function="internal">
        <lane id=":1667024372_0_0" index="0" allow="pedestrian delivery bicycle" speed="3.65" length="4.67" shape="111.03,283.14 109.79,282.41 109.34,281.63 109.70,280.81 110.85,279.94"/>
    </edge>
    <edge id=":1711340108_0" function="internal">
        <lane id=":1711340108_0_0" index="0" allow="pedestrian delivery bicycle" speed="5.56" length="12.01" shape="483.81,253.13 482.32,250.34 480.29,248.57 477.97,246.95 475.57,244.65"/>
    </edge>
    <edge id=":1711340108_1" function="internal">
        <lane id=":1711340108_1_0" index="0" allow="pedestrian delivery bicycle" speed="5.56" length="12.54" shape="483.81,253.13 482.80,249.91 482.06,247.09 481.63,244.23 481.51,240.88"/>
    </edge>
    <edge id=":1711340108_2" function="internal">
        <lane id=":1711340108_2_0" index="0" allow="pedestrian delivery bicycle" speed="3.94" length="4.84" shape="483.81,253.13 483.52,251.66 483.82,250.79 484.70,250.50 486.16,250.79"/>
    </edge>
    <edge id=":1711340108_3" function="internal">
        <lane id=":1711340108_3_0" index="0" allow="pedestrian delivery bicycle" speed="5.56" length="10.12" shape="484.71,240.91 484.76,244.66 485.03,247.56 485.49,249.60 486.16,250.79"/>
    </edge>
    <edge id=":1711340108_4" function="internal">
        <lane id=":1711340108_4_0" index="0" allow="pedestrian delivery bicycle" speed="5.56" length="17.40" shape="484.71,240.91 484.08,246.71 482.34,249.27 479.51,248.58 475.57,244.65"/>
    </edge>
    <edge id=":1711340108_5" function="internal">
        <lane id=":1711340108_5_0" index="0" allow="pedestrian delivery bicycle" speed="3.65" length="4.67" shape="484.71,240.91 483.89,242.10 483.09,242.49 482.29,242.09 481.51,240.88"/>
    </edge>
    <edge id=":1711340108_6" function="internal">
        <lane id=":1711340108_6_0" index="0" allow="pedestrian delivery bicycle" speed="4.69" length="6.99" shape="477.82,242.35 479.41,243.93 480.55,244.22 481.25,243.20 481.51,240.88"/>
    </edge>
    <edge id=":1711340108_7" function="internal">
        <lane id=":1711340108_7_0" index="0" allow="pedestrian delivery bicycle" speed="5.56" length="11.88" shape="477.82,242.35 479.95,244.81 481.83,246.71 483.79,248.54 486.16,250.79"/>
    </edge>
    <edge id=":1711340108_8" function="internal">
        <lane id=":1711340108_8_0" index="0" allow="pedestrian delivery bicycle" speed="3.66" length="4.71" shape="477.82,242.35 478.12,243.77 477.85,244.63 477.00,244.92 475.57,244.65"/>
    </edge>
    <edge id=":1711340124_0" function="internal">
        <lane id=":1711340124_0_0" index="0" allow="pedestrian delivery bicycle" speed="5.44" length="4.82" shape="489.24,222.39 487.87,222.74 486.86,223.35 486.19,224.20 485.89,225.30"/>
    </edge>
    <edge id=":1711340124_1" function="internal">
        <lane id=":1711340124_1_0" index="0" allow="pedestrian delivery bicycle" speed="5.56" length="10.04" shape="489.24,222.39 486.66,222.35 484.72,221.36 483.43,219.43 482.78,216.55"/>
    </edge>
    <edge id=":1711340124_2" function="internal">
        <lane id=":1711340124_2_0" index="0" allow="pedestrian delivery bicycle" speed="3.68" length="4.78" shape="489.24,222.39 488.07,221.49 487.72,220.65 488.18,219.86 489.46,219.12"/>
    </edge>
    <edge id=":1711340124_3" function="internal">
        <lane id=":1711340124_3_0" index="0" allow="pedestrian delivery bicycle" speed="5.05" length="5.23" shape="485.96,216.24 486.30,217.68 487.00,218.64 488.05,219.12 489.46,219.12"/>
    </edge>
    <edge id=":1711340124_4" function="internal">
        <lane id=":1711340124_4_0" index="0" allow="pedestrian delivery bicycle" speed="5.56" length="9.09" shape="485.96,216.24 486.20,218.93 486.27,220.78 486.16,222.62 485.89,225.30"/>
    </edge>
    <edge id=":1711340124_5" function="internal">
        <lane id=":1711340124_5_0" index="0" allow="pedestrian delivery bicycle" speed="3.65" length="4.67" shape="485.96,216.24 485.28,217.52 484.52,217.99 483.69,217.67 482.78,216.55"/>
    </edge>
    <edge id=":1711340124_6" function="internal">
        <lane id=":1711340124_6_0" index="0" allow="pedestrian delivery bicycle" speed="5.56" length="8.43" shape="482.70,224.96 482.96,222.47 483.06,220.76 483.00,219.05 482.78,216.55"/>
    </edge>
    <edge id=":1711340124_7" function="internal">
        <lane id=":1711340124_7_0" index="0" allow="pedestrian delivery bicycle" speed="5.56" length="9.69" shape="482.70,224.96 483.32,222.76 484.66,221.05 486.70,219.84 489.46,219.12"/>
    </edge>
    <edge id=":1711340124_8" function="internal">
        <lane id=":1711340124_8_0" index="0" allow="pedestrian delivery bicycle" speed="3.65" length="4.67" shape="482.70,224.96 483.63,223.85 484.47,223.54 485.22,224.02 485.89,225.30"/>
    </edge>
    <edge id=":1711340185_0" function="internal">
        <lane id=":1711340185_0_0" index="0" allow="pedestrian delivery bicycle" speed="5.56" length="3.47" shape="422.32,123.76 421.35,123.42 420.67,123.23 419.97,123.15 418.94,123.09"/>
    </edge>
    <edge id=":1711340185_1" function="internal">
        <lane id=":1711340185_1_0" index="0" allow="pedestrian delivery bicycle" speed="3.65" length="4.67" shape="422.32,123.76 421.46,122.60 421.36,121.71 422.00,121.09 423.40,120.75"/>
    </edge>
    <edge id=":1711340199_0" function="internal">
        <lane id=":1711340199_0_0" index="0" allow="pedestrian delivery bicycle" speed="3.65" length="4.67" shape="417.54,114.20 417.18,112.80 417.42,111.94 418.25,111.61 419.68,111.82"/>
    </edge>
    <edge id=":1711340199_1" function="internal">
        <lane id=":1711340199_1_0" index="0" allow="pedestrian delivery bicycle" speed="5.56" length="5.23" shape="414.55,112.80 419.68,111.82"/>
    </edge>
    <edge id=":25769626_0" function="internal">
        <lane id=":25769626_0_0" index="0" disallow="pedestrian tram rail_urban rail rail_electric rail_fast ship" speed="3.65" length="4.67" shape="224.95,65.81 224.80,64.38 225.16,63.56 226.03,63.36 227.41,63.77"/>
    </edge>
    <edge id=":25769967_0" function="internal">
        <lane id=":25769967_0_0" index="0" disallow="pedestrian tram rail_urban rail rail_electric rail_fast ship" speed="8.33" length="6.31" shape="178.71,314.41 174.27,318.89"/>
    </edge>
    <edge id=":25769967_1" function="internal">
        <lane id=":25769967_1_0" index="0" disallow="pedestrian tram rail_urban rail rail_electric rail_fast ship" speed="8.33" length="4.07" shape="174.50,313.48 173.82,314.48 173.34,315.15 172.80,315.78 171.97,316.66"/>
    </edge>
    <edge id=":258987625_0" function="internal">
        <lane id=":258987625_0_0" index="0" allow="pedestrian delivery bicycle" speed="3.65" length="4.67" shape="455.65,485.01 454.23,485.27 453.39,484.97 453.12,484.12 453.42,482.71"/>
    </edge>
    <edge id=":258987629_0" function="internal">
        <lane id=":258987629_0_0" index="0" disallow="pedestrian tram rail_urban rail rail_electric rail_fast ship" speed="3.65" length="4.67" shape="341.00,543.90 340.63,545.29 340.00,545.92 339.12,545.80 337.98,544.92"/>
    </edge>
    <edge id=":258989437_0" function="internal">
        <lane id=":258989437_0_0" index="0" allow="pedestrian delivery bicycle" speed="4.81" length="5.35" shape="335.63,145.38 334.54,144.31 333.45,143.95 332.36,144.30 331.26,145.36"/>
    </edge>
    <edge id=":258989437_1" function="internal">
        <lane id=":258989437_1_0" index="0" allow="pedestrian delivery bicycle" speed="5.56" length="10.65" shape="335.63,145.38 334.00,142.67 333.40,140.16 333.83,137.85 335.27,135.73"/>
    </edge>
    <edge id=":258989437_2" function="internal">
        <lane id=":258989437_2_0" index="0" allow="pedestrian delivery bicycle" speed="3.65" length="4.67" shape="335.63,145.38 335.53,143.94 335.93,143.13 336.81,142.97 338.17,143.44"/>
    </edge>
    <edge id=":258989437_3" function="internal">
        <lane id=":258989437_3_0" index="0" allow="pedestrian delivery bicycle" speed="5.56" length="6.05" shape="337.57,137.96 336.86,139.08 336.72,140.36 337.16,141.81 338.17,143.44"/>
    </edge>
    <edge id=":258989437_4" function="internal">
        <lane id=":258989437_4_0" index="0" allow="pedestrian delivery bicycle" speed="5.56" length="9.74" shape="337.57,137.96 335.57,140.05 334.26,141.53 333.03,143.07 331.26,145.36"/>
    </edge>
    <edge id=":258989437_5" function="internal">
        <lane id=":258989437_5_0" index="0" allow="pedestrian delivery bicycle" speed="3.65" length="4.67" shape="337.57,137.96 336.16,138.26 335.31,137.99 335.01,137.15 335.27,135.73"/>
    </edge>
    <edge id=":258989437_6" function="internal">
        <lane id=":258989437_6_0" index="0" allow="pedestrian delivery bicycle" speed="5.56" length="10.10" shape="328.73,143.41 330.55,141.04 331.84,139.43 333.21,137.89 335.27,135.73"/>
    </edge>
    <edge id=":258989437_7" function="internal">
        <lane id=":258989437_7_0" index="0" allow="pedestrian delivery bicycle" speed="5.56" length="11.57" shape="328.73,143.41 331.10,141.11 333.46,140.35 335.82,141.12 338.17,143.44"/>
    </edge>
    <edge id=":258989437_8" function="internal">
        <lane id=":258989437_8_0" index="0" allow="pedestrian delivery bicycle" speed="3.65" length="4.67" shape="328.73,143.41 330.10,142.95 330.97,143.12 331.36,143.93 331.26,145.36"/>
    </edge>
    <edge id=":259104946_0" function="internal">
        <lane id=":259104946_0_0" index="0" disallow="pedestrian tram rail_urban rail rail_electric rail_fast ship" speed="3.65" length="4.67" shape="487.80,409.53 487.97,410.97 487.62,411.79 486.75,412.00 485.36,411.61"/>
    </edge>
    <edge id=":259106268_0" function="internal">
        <lane id=":259106268_0_0" index="0" allow="pedestrian delivery bicycle" speed="3.65" length="4.67" shape="503.38,261.77 504.46,262.73 504.75,263.58 504.24,264.31 502.94,264.95"/>
    </edge>
    <edge id=":2689055557_0" function="internal">
        <lane id=":2689055557_0_0" index="0" allow="pedestrian bicycle" speed="2.89" length="2.92" width="2.00" shape="379.38,75.62 379.00,74.80 379.05,74.25 379.52,73.95 380.42,73.92"/>
    </edge>
    <edge id=":294050448_0" function="internal">
        <lane id=":294050448_0_0" index="0" allow="pedestrian delivery bicycle" speed="5.56" length="9.41" shape="458.17,474.86 459.33,477.10 459.58,479.27 458.93,481.34 457.37,483.34"/>
    </edge>
    <edge id=":294050448_1" function="internal">
        <lane id=":294050448_1_0" index="0" allow="pedestrian delivery bicycle" speed="3.65" length="4.67" shape="458.17,474.86 458.21,476.30 457.79,477.09 456.90,477.22 455.56,476.70"/>
    </edge>
    <edge id=":294050448_2" function="internal">
        <lane id=":294050448_2_0" index="0" allow="pedestrian delivery bicycle" speed="5.23" length="4.82" shape="455.15,481.04 455.94,480.02 456.28,478.95 456.15,477.85 455.56,476.70"/>
    </edge>
    <edge id=":294050448_3" function="internal">
        <lane id=":294050448_3_0" index="0" allow="pedestrian delivery bicycle" speed="3.65" length="4.67" shape="455.15,481.04 456.57,480.78 457.41,481.07 457.68,481.93 457.37,483.34"/>
    </edge>
    <edge id=":4226513428_0" function="internal">
        <lane id=":4226513428_0_0" index="0" disallow="pedestrian tram rail_urban rail rail_electric rail_fast ship" speed="8.33" length="5.05" shape="390.87,294.85 387.81,290.84"/>
        <lane id=":4226513428_0_1" index="1" disallow="pedestrian tram rail_urban rail rail_electric rail_fast ship" speed="8.33" length="5.05" shape="393.42,292.91 390.35,288.90"/>
    </edge>
    <edge id=":4226513428_2" function="internal">
        <lane id=":4226513428_2_0" index="0" disallow="pedestrian tram rail_urban rail rail_electric rail_fast ship" speed="8.33" length="5.05" shape="395.45,285.02 398.50,289.03"/>
        <lane id=":4226513428_2_1" index="1" disallow="pedestrian tram rail_urban rail rail_electric rail_fast ship" speed="8.33" length="5.05" shape="392.90,286.96 395.96,290.97"/>
    </edge>
    <edge id=":422782514_0" function="internal">
        <lane id=":422782514_0_0" index="0" disallow="pedestrian tram rail_urban rail rail_electric rail_fast ship" speed="8.33" length="8.20" shape="136.04,358.34 134.55,360.24 133.82,361.78 133.09,363.31 131.58,365.19"/>
        <lane id=":422782514_0_1" index="1" disallow="pedestrian tram rail_urban rail rail_electric rail_fast ship" speed="8.33" length="8.20" shape="133.74,356.11 132.25,358.01 131.53,359.54 130.80,361.07 129.30,362.95"/>
        <lane id=":422782514_0_2" index="2" disallow="pedestrian tram rail_urban rail rail_electric rail_fast ship" speed="8.33" length="8.20" shape="133.74,356.11 131.90,357.66 130.39,358.42 128.88,359.17 127.02,360.70"/>
    </edge>
    <edge id=":422801427_0" function="internal">
        <lane id=":422801427_0_0" index="0" allow="pedestrian delivery bicycle" speed="3.65" length="4.67" shape="444.87,463.81 444.67,462.39 445.01,461.55 445.87,461.32 447.27,461.69"/>
    </edge>
    <edge id=":4299180953_0" function="internal">