<?xml version="1.0" encoding="UTF-8"?>

<!-- generated on 2023-08-30 17:56:59 by Eclipse SUMO sumo Version 1.18.0
-->

<configuration xmlns:xsi="http://www.w3.org/2001/XMLSchema-instance" xsi:noNamespaceSchemaLocation="http://sumo.dlr.de/xsd/sumoConfiguration.xsd">

    <input>
        <net-file value="uoa.net.xml"/>
        <route-files value="uoa.rou.xml"/>
    </input>

</configuration>
