<?xml version="1.0" encoding="UTF-8"?>

<!-- generated on 2023-08-30 17:56:50 by Eclipse SUMO netedit Version 1.18.0
-->

<routes xmlns:xsi="http://www.w3.org/2001/XMLSchema-instance" xsi:noNamespaceSchemaLocation="http://sumo.dlr.de/xsd/routes_file.xsd">
    <!-- Routes -->
    <route id="r_0" edges="1183559174 1025372331 433802155 1025372330#0 1025372330#2 618343965 907165997#0 907165997#2 -128944705#1 -907165997#1 907165997#0 907165997#2 -128944705#1 -907165997#1 -654886197 433802154#0 433802154#1 -1025372331 -1183559174 1183559174 1025372331"/>
    <route id="r_1" edges="154109427 118776324#0 617655950#0 617655950#2 217996902#0 -217996902#0 118775703#0 118775703#1 118776354#0 907165997#0 907165997#2 -128944705#1 -907165997#1 -654886197 433802154#0 433802154#1 -1025372331 -1183559174 1183559174"/>
    <!-- Vehicles, persons and containers (sorted by depart) -->
    <trip id="t_0" depart="0.00" from="-1183559174" to="433802154#1" via="1183559174 1025372331 907165997#0 -907165997#1"/>
    <trip id="t_1" depart="0.00" from="154109427" to="1025372331"/>
</routes>
