<?xml version="1.0" encoding="UTF-8"?>

<!-- generated on 2023-08-29 14:54:51 by Eclipse SUMO sumo Version 1.18.0
-->

<configuration xmlns:xsi="http://www.w3.org/2001/XMLSchema-instance" xsi:noNamespaceSchemaLocation="http://sumo.dlr.de/xsd/sumoConfiguration.xsd">

    <input>
        <net-file value="tutorial1.net.xml"/>
        <route-files value="tutorial1.rou.xml"/>
    </input>

</configuration>
