<?xml version="1.0" encoding="UTF-8"?>

<!-- generated on 2023-08-29 14:54:51 by Eclipse SUMO netedit Version 1.18.0
<configuration xmlns:xsi="http://www.w3.org/2001/XMLSchema-instance" xsi:noNamespaceSchemaLocation="http://sumo.dlr.de/xsd/neteditConfiguration.xsd">

    <input>
        <sumocfg-file value="/Users/oachuang/Documents/Programming/GitHub/homebrew-sumo/Saves/tutorial1.sumocfg"/>
        <route-files value="/Users/oachuang/Documents/Programming/GitHub/homebrew-sumo/Saves/tutorial1.rou.xml"/>
        <sumo-net-file value="/Users/oachuang/Documents/Programming/GitHub/homebrew-sumo/Saves/tutorial1.net.xml"/>
    </input>

    <output>
        <output-file value="/Users/oachuang/Documents/Programming/GitHub/homebrew-sumo/Saves/tutorial1.net.xml"/>
    </output>

    <processing>
        <offset.disable-normalization value="true"/>
    </processing>

    <junctions>
        <no-turnarounds value="true"/>
    </junctions>

    <netedit>
        <new-network value="false"/>
    </netedit>

</configuration>
-->

<net version="1.16" junctionCornerDetail="5" limitTurnSpeed="5.50" xmlns:xsi="http://www.w3.org/2001/XMLSchema-instance" xsi:noNamespaceSchemaLocation="http://sumo.dlr.de/xsd/net_file.xsd">

    <location netOffset="0.00,0.00" convBoundary="-16.50,18.03,124.94,74.18" origBoundary="10000000000.00,10000000000.00,-10000000000.00,-10000000000.00" projParameter="!"/>

    <edge id=":J2_0" function="internal">
        <lane id=":J2_0_0" index="0" speed="3.96" length="1.98" shape="58.16,16.75 58.62,16.49 59.08,16.40 59.54,16.47 60.01,16.70"/>
    </edge>

    <edge id="E1" from="J0" to="J2" priority="-1">
        <lane id="E1_0" index="0" speed="13.89" length="94.18" shape="-17.45,72.90 58.16,16.75"/>
    </edge>
    <edge id="E2" from="J2" to="J3" priority="-1">
        <lane id="E2_0" index="0" speed="13.89" length="79.24" shape="60.01,16.70 125.83,60.83"/>
    </edge>

    <junction id="J0" type="dead_end" x="-16.50" y="74.18" incLanes="" intLanes="" shape="-16.50,74.18 -18.40,71.61"/>
    <junction id="J2" type="priority" x="59.12" y="18.03" incLanes="E1_0" intLanes=":J2_0_0" shape="59.12,18.03 60.90,15.37 59.66,14.83 59.04,14.77 58.43,14.86 57.82,15.09 57.21,15.46">
        <request index="0" response="0" foes="0" cont="0"/>
    </junction>
    <junction id="J3" type="dead_end" x="124.94" y="62.16" incLanes="E2_0" intLanes="" shape="126.72,59.50 124.94,62.16"/>

    <connection from="E1" to="E2" fromLane="0" toLane="0" via=":J2_0_0" dir="l" state="M"/>

    <connection from=":J2_0" to="E2" fromLane="0" toLane="0" dir="l" state="M"/>

</net>
